Arginine
 OpenBabel10022015533D

 26 25  0  0  0  0  0  0  0  0999 V2000
    1.0863    0.0086   -0.0497 N   0  0  0  0  0  0  0  0  0  0  0  0
    0.5963    1.3693   -0.3132 C   0  0  0  0  0  0  0  0  0  0  0  0
    1.1030    1.8368   -1.6678 C   0  0  0  0  0  0  0  0  0  0  0  0
    0.5963    0.8975   -2.7501 C   0  0  0  0  0  0  0  0  0  0  0  0
   -0.9237    0.8975   -2.7501 C   0  0  0  0  0  0  0  0  0  0  0  0
   -1.4137    2.2581   -3.0135 N   0  0  0  0  0  0  0  0  0  0  0  0
   -2.2588    2.5206   -4.1873 C   0  0  0  0  0  0  0  0  0  0  0  0
   -2.7488    3.8813   -4.4507 N   0  0  0  0  0  0  0  0  0  0  0  0
   -2.5766    1.5377   -5.0021 N   0  0  0  0  0  0  0  0  0  0  0  0
   -0.9237    1.3693   -0.3132 C   0  0  0  0  0  0  0  0  0  0  0  0
   -1.6337    2.1754    0.6156 O   0  0  0  0  0  0  0  0  0  0  0  0
   -1.5591    0.6478   -1.1444 O   0  0  0  0  0  0  0  0  0  0  0  0
    0.7463   -0.6218   -0.7760 H   0  0  0  0  0  0  0  0  0  0  0  0
    2.1063    0.0086   -0.0497 H   0  0  0  0  0  0  0  0  0  0  0  0
    0.9530    2.0305    0.4487 H   0  0  0  0  0  0  0  0  0  0  0  0
    0.7463    2.8272   -1.8595 H   0  0  0  0  0  0  0  0  0  0  0  0
    2.1730    1.8368   -1.6678 H   0  0  0  0  0  0  0  0  0  0  0  0
    0.9530    1.2266   -3.7037 H   0  0  0  0  0  0  0  0  0  0  0  0
    0.9530   -0.0930   -2.5583 H   0  0  0  0  0  0  0  0  0  0  0  0
   -1.2803    0.2362   -3.5119 H   0  0  0  0  0  0  0  0  0  0  0  0
   -1.2803    0.5683   -1.7965 H   0  0  0  0  0  0  0  0  0  0  0  0
   -1.1673    3.0201   -2.3818 H   0  0  0  0  0  0  0  0  0  0  0  0
   -3.3352    4.0634   -5.2652 H   0  0  0  0  0  0  0  0  0  0  0  0
   -2.5024    4.6433   -3.8190 H   0  0  0  0  0  0  0  0  0  0  0  0
   -3.1630    1.7198   -5.8165 H   0  0  0  0  0  0  0  0  0  0  0  0
   -1.1337    2.7430    1.2696 H   0  0  0  0  0  0  0  0  0  0  0  0
  1  2  1  0  0  0  0
  1 13  1  0  0  0  0
  1 14  1  0  0  0  0
  2  3  1  0  0  0  0
  2 10  1  0  0  0  0
  2 15  1  0  0  0  0
  3  4  1  0  0  0  0
  3 16  1  0  0  0  0
  3 17  1  0  0  0  0
  4  5  1  0  0  0  0
  4 18  1  0  0  0  0
  4 19  1  0  0  0  0
  5  6  1  0  0  0  0
  5 20  1  0  0  0  0
  5 21  1  0  0  0  0
  6  7  1  0  0  0  0
  6 22  1  0  0  0  0
  7  8  1  0  0  0  0
  7  9  2  0  0  0  0
  8 23  1  0  0  0  0
  8 24  1  0  0  0  0
  9 25  1  0  0  0  0
 10 11  1  0  0  0  0
 10 12  2  0  0  0  0
 11 26  1  0  0  0  0
M  END
$$$$
