Aspartic_acid
 OpenBabel10022014033D

  9  8  0  0  0  0  0  0  0  0999 V2000
    0.9232   -0.0236    0.0595 O   0  0  0  0  0  0  0  0  0  0  0  0
    2.1941   -0.0236    0.0595 C   0  0  0  0  0  0  0  0  0  0  0  0
    2.9041    1.2054    0.0150 O   0  0  0  0  0  0  0  0  0  0  0  0
    2.9541   -1.3391    0.1071 C   0  0  0  0  0  0  0  0  0  0  0  0
    4.4485   -1.0615    0.0971 C   0  0  0  0  0  0  0  0  0  0  0  0
    4.8036   -0.2478    1.2687 N   0  0  0  0  0  0  0  0  0  0  0  0
    5.2085   -2.3770    0.1447 C   0  0  0  0  0  0  0  0  0  0  0  0
    4.5730   -3.4769    0.1846 O   0  0  0  0  0  0  0  0  0  0  0  0
    6.6285   -2.3770    0.1447 O   0  0  0  0  0  0  0  0  0  0  0  0
  1  2  2  0  0  0  0
  2  3  1  0  0  0  0
  2  4  1  0  0  0  0
  4  5  1  0  0  0  0
  5  6  1  0  0  0  0
  5  7  1  0  0  0  0
  7  8  2  0  0  0  0
  7  9  1  0  0  0  0
M  END
$$$$
