Isoleucine
 OpenBabel10022014033D

  9  8  0  0  1  0  0  0  0  0999 V2000
    1.1322   -2.7006    1.2897 C   0  0  0  0  0  0  0  0  0  0  0  0
    2.4479   -2.4052    0.5883 C   0  0  0  0  0  0  0  0  0  0  0  0
    2.9546   -1.0187    0.9510 C   0  0  2  0  0  0  0  0  0  0  0  0
    2.4479   -0.0114   -0.0684 C   0  0  0  0  0  0  0  0  0  0  0  0
    4.4746   -1.0187    0.9510 C   0  0  1  0  0  0  0  0  0  0  0  0
    4.9813    0.3677    1.3136 C   0  0  0  0  0  0  0  0  0  0  0  0
    5.7119    0.5286    2.3410 O   0  0  0  0  0  0  0  0  0  0  0  0
    4.6382    1.4831    0.5046 O   0  0  0  0  0  0  0  0  0  0  0  0
    4.9646   -1.9929    1.9368 N   0  0  0  0  0  0  0  0  0  0  0  0
  1  2  1  0  0  0  0
  3  5  1  0  0  0  0
  3  4  1  6  0  0  0
  3  2  1  0  0  0  0
  5  6  1  0  0  0  0
  5  9  1  1  0  0  0
  6  7  2  0  0  0  0
  6  8  1  0  0  0  0
M  END
$$$$
