Phenylalanine
 OpenBabel10022014033D

 12 12  0  0  1  0  0  0  0  0999 V2000
    1.0015   -0.0632    0.0775 N   0  0  0  0  0  0  0  0  0  0  0  0
    2.4715   -0.0632    0.0775 C   0  0  1  0  0  0  0  0  0  0  0  0
    2.9781   -1.4806   -0.1339 C   0  0  0  0  0  0  0  0  0  0  0  0
    2.4715   -2.3723    0.9880 C   0  0  0  0  0  0  0  0  0  0  0  0
    2.0847   -1.8294    2.2021 C   0  0  0  0  0  0  0  0  0  0  0  0
    2.1043   -2.7519    3.2748 C   0  0  0  0  0  0  0  0  0  0  0  0
    2.1229   -4.0648    3.1334 C   0  0  0  0  0  0  0  0  0  0  0  0
    2.4457   -4.5382    1.8919 C   0  0  0  0  0  0  0  0  0  0  0  0
    2.5725   -3.6859    0.8217 C   0  0  0  0  0  0  0  0  0  0  0  0
    2.9781    0.8285   -1.0444 C   0  0  0  0  0  0  0  0  0  0  0  0
    2.0554    1.5001   -1.8893 O   0  0  0  0  0  0  0  0  0  0  0  0
    4.2276    0.9730   -1.2262 O   0  0  0  0  0  0  0  0  0  0  0  0
  2  1  1  6  0  0  0
  2  3  1  0  0  0  0
  2 10  1  0  0  0  0
  3  4  1  0  0  0  0
  4  5  2  0  0  0  0
  4  9  1  0  0  0  0
  5  6  1  0  0  0  0
  6  7  2  0  0  0  0
  7  8  1  0  0  0  0
  8  9  2  0  0  0  0
 10 11  1  0  0  0  0
 10 12  2  0  0  0  0
M  END
$$$$
