Valine
 OpenBabel10022015533D

 19 18  0  0  1  0  0  0  0  0999 V2000
    0.9736   -0.0955    0.0138 C   0  0  0  0  0  0  0  0  0  0  0  0
    0.4669    0.3178    1.3859 C   0  0  0  0  0  0  0  0  0  0  0  0
    0.9736    1.7128    1.7141 C   0  0  0  0  0  0  0  0  0  0  0  0
   -1.0531    0.3178    1.3859 C   0  0  1  0  0  0  0  0  0  0  0  0
   -1.5598   -1.0772    1.0577 C   0  0  0  0  0  0  0  0  0  0  0  0
   -2.2904   -1.7001    1.8904 O   0  0  0  0  0  0  0  0  0  0  0  0
   -1.2167   -1.6844   -0.1792 O   0  0  0  0  0  0  0  0  0  0  0  0
   -1.5431    0.7175    2.7130 N   0  0  0  0  0  0  0  0  0  0  0  0
    0.6169    0.5956   -0.7212 H   0  0  0  0  0  0  0  0  0  0  0  0
    0.6169   -1.0775   -0.2173 H   0  0  0  0  0  0  0  0  0  0  0  0
    2.0436   -0.0955    0.0138 H   0  0  0  0  0  0  0  0  0  0  0  0
    0.8236   -0.3733    2.1209 H   0  0  0  0  0  0  0  0  0  0  0  0
    0.6169    2.4039    0.9792 H   0  0  0  0  0  0  0  0  0  0  0  0
    0.6169    2.0037    2.6801 H   0  0  0  0  0  0  0  0  0  0  0  0
    2.0436    1.7128    1.7141 H   0  0  0  0  0  0  0  0  0  0  0  0
   -1.4097    1.0089    0.6510 H   0  0  0  0  0  0  0  0  0  0  0  0
   -1.5500   -2.6021   -0.3951 H   0  0  0  0  0  0  0  0  0  0  0  0
   -2.5631    0.7175    2.7130 H   0  0  0  0  0  0  0  0  0  0  0  0
   -1.2031    0.0587    3.4136 H   0  0  0  0  0  0  0  0  0  0  0  0
  1  2  1  0  0  0  0
  1  9  1  0  0  0  0
  1 10  1  0  0  0  0
  1 11  1  0  0  0  0
  2  3  1  0  0  0  0
  2  4  1  0  0  0  0
  2 12  1  0  0  0  0
  3 13  1  0  0  0  0
  3 14  1  0  0  0  0
  3 15  1  0  0  0  0
  4  5  1  0  0  0  0
  4  8  1  0  0  0  0
  4 16  1  6  0  0  0
  5  6  2  0  0  0  0
  5  7  1  0  0  0  0
  7 17  1  0  0  0  0
  8 18  1  0  0  0  0
  8 19  1  0  0  0  0
M  END
$$$$
