13
Alanine
O          1.03111       -0.01788        0.09334
C          2.30201       -0.01788        0.09334
O          3.01201        0.47516        1.21994
C          3.06201       -0.54563       -1.11259
N          2.70688       -1.95423       -1.33757
C          2.69481        0.27179       -2.34035
H          4.01201        0.47516        1.21994
H          4.11399       -0.46724       -0.93347
H          3.21689       -2.30838       -2.14681
H          2.95330       -2.50276       -0.51367
H          2.95330        1.29710       -2.17660
H          3.22981       -0.09972       -3.18927
H          1.64282        0.19339       -2.51947
