6
Alanine
O          1.04326        0.06282       -0.06467
C          2.31416        0.06282       -0.06467
O          3.02416        0.10871       -1.29357
C          3.07416        0.01371        1.25077
N          2.71904       -1.21447        1.97629
C          4.56857        0.02407        0.97321
