26
Arginine
N          1.08634        0.00859       -0.04972
C          0.59634        1.36926       -0.31315
C          1.10300        1.83683       -1.66780
C          0.59634        0.89746       -2.75006
C         -0.92366        0.89746       -2.75006
N         -1.41367        2.25813       -3.01350
C         -2.25879        2.52059       -4.18729
N         -2.74879        3.88125       -4.45072
N         -2.57662        1.53770       -5.00206
C         -0.92366        1.36925       -0.31316
O         -1.63367        2.17535        0.61555
O         -1.55911        0.64780       -1.14436
H          0.74634       -0.62178       -0.77597
H          2.10634        0.00859       -0.04972
H          0.95300        2.03052        0.44870
H          0.74633        2.82724       -1.85955
H          2.17300        1.83683       -1.66780
H          0.95300        1.22661       -3.70365
H          0.95300       -0.09295       -2.55831
H         -1.28033        0.23620       -3.51191
H         -1.28033        0.56832       -1.79646
H         -1.16725        3.02014       -2.38182
H         -3.33520        4.06337       -5.26519
H         -2.50238        4.64327       -3.81905
H         -3.16303        1.71982       -5.81652
H         -1.13367        2.74302        1.26958
