16
Aspartic_acid
O          1.00152       -0.05017        0.08649
C          2.27242       -0.05017        0.08649
O          2.98242       -0.62344       -1.00147
C          3.03242        0.56347        1.25107
C          2.66522        2.03301        1.37768
N          1.21997        2.15823        1.61533
C          3.42522        2.64665        2.54226
O          4.21953        3.61818        2.34135
O          3.24772        2.13440        3.85470
H          3.98242       -0.62344       -1.00147
H          2.77393        0.05211        2.15473
H          4.08440        0.47232        1.07809
H          2.92371        2.54436        0.47402
H          0.97356        3.14436        1.70029
H          0.70997        1.74644        0.83383
H          3.74772        2.53811        4.62087
