9
Asparagine
O          6.33335       -0.12612       -0.63988
C          6.04182        0.83392        0.14020
N          6.90810        2.01995        0.20176
C          4.79740        0.75576        1.00951
C          4.43020       -0.69285        0.73187
N          2.98495       -0.87795        0.92653
C          5.19020       -1.59996        1.68578
O          4.55475       -2.35842        2.48336
O          6.61020       -1.59996        1.68578
