19
Glutamic_acid
C          0.95806        0.07178        0.05558
C          0.45139       -1.14174       -0.70669
C          0.95805       -2.40865       -0.03689
O          0.13218       -3.26262        0.41460
O          2.35414       -2.63804        0.08439
C          0.45139        0.01840        1.48765
C          0.95806        1.23191        2.24992
O          0.13219        2.04991        2.76375
O          2.35415        1.45164        2.38794
N         -1.01861        0.01840        1.48765
H          0.60140        0.96362       -0.41593
H          2.02806        0.07178        0.05558
H         -0.61861       -1.14174       -0.70669
H          0.80806       -1.10416       -1.71480
H          2.68747       -3.47154        0.52505
H          0.80806       -0.87344        1.95915
H          2.68748        2.25000        2.88944
H         -1.35861       -0.01743        2.44865
H         -1.35860        0.86856        1.03818
