11
Histidine
O          4.46043       -1.91568       -2.01840
C          3.84473       -1.52204       -0.97862
C          2.97086       -0.29820       -1.19989
C          2.21086        0.01938        0.07759
C          3.10547        0.88510        0.94971
C          4.36857        1.28440        0.62955
N          4.81976        2.03575        1.69402
C          3.80559        2.03676        2.62717
N          2.76047        1.36735        2.21596
N          2.01561       -0.56775       -2.28420
O          4.39226       -1.77107        0.30769
