20
Histidine
O          3.86038        0.89665       -1.94008
C          3.86204       -0.36705       -1.80499
C          2.98817       -0.99836       -0.73346
C          2.22817        0.09016        0.00677
C          3.08979        1.20898        0.56914
C          3.69636        2.21784       -0.11762
N          4.40885        2.94628        0.81132
C          4.21529        2.32369        2.02550
N          3.42567        1.28653        1.92418
N          3.83330       -1.73769        0.21526
O          4.63509       -1.17375       -2.68136
H          2.29285       -1.67087       -1.19079
H          1.53181        0.49570       -0.69716
H          1.69442       -0.38397        0.80378
H          3.63241        2.40703       -1.16882
H          4.96835        3.78067        0.63482
H          4.65882        2.65051        2.94277
H          4.34329       -2.46814       -0.28148
H          4.49612       -1.09659        0.65122
H          4.63640       -2.16809       -2.57507
