22
Isoleucine
C          0.14680        2.23455       -0.04960
C          0.47939        2.60119        1.38754
C          0.98606        1.37060        2.12194
C          0.47940        0.11929        1.42343
C          0.47939        1.39132        3.55486
C          0.98606        0.16074        4.28927
O          1.71672        0.29228        5.32079
O          0.64302       -1.13585        3.82283
N          0.96939        2.60147        4.23040
H          1.02320        1.85644       -0.53318
H         -0.19988        3.10380       -0.56836
H         -0.61705        1.48532       -0.05891
H          1.24324        3.35042        1.39686
H         -0.39701        2.97930        1.87113
H          2.05606        1.37060        2.12194
H          1.24326       -0.62993        1.41419
H         -0.37658       -0.25050        1.94827
H          0.20444        0.36074        0.41794
H         -0.59061        1.39132        3.55486
H          0.97635       -1.94544        4.30600
H          0.62939        2.61538        5.19196
H          1.98939        2.60147        4.23040
