22
Leucine
C          0.92564        0.05590       -0.03669
C          0.41897        1.48806        0.01442
C          0.92563        2.24840       -1.20032
C         -1.10103        1.48806        0.01442
C         -1.60769        0.72772        1.22915
C         -1.10103        1.39954        2.49499
O         -1.92691        1.85239        3.34825
O          0.29506        1.52118        2.72419
N         -3.07769        0.72772        1.22915
H          0.56898       -0.41702       -0.92777
H          0.56898       -0.47934        0.81842
H          1.99564        0.05590       -0.03669
H          0.77564        1.96098        0.90550
H          0.56896        1.77548       -2.09140
H          0.56897        3.25656       -1.16434
H          1.99563        2.24840       -1.20032
H         -1.45770        2.49622        0.05040
H         -1.45769        1.01513       -0.87666
H         -1.25102       -0.28044        1.19317
H          0.62839        1.96317        3.55698
H         -3.41769        0.21749        2.04430
H         -3.41769        1.68877        1.26345
