20
Methionine
C          0.66449        1.83002       -0.38865
S          2.47449        1.83002       -0.38865
C          3.07782        0.79993        0.97187
C          2.57115        1.35688        2.29229
C          1.05115        1.35687        2.29229
N          0.56114        2.64181        1.77293
C          0.54448        1.15762        3.71144
O         -0.18617        0.15591        3.99055
O          0.88753        2.09071        4.72538
H          0.30783        2.43896       -1.19294
H          0.30782        2.22207        0.54085
H          0.30782        0.82901       -0.51387
H          2.72115       -0.20107        0.84665
H          4.14782        0.79993        0.97187
H          2.92781        0.74793        3.09658
H          2.92782        2.35788        2.41751
H          0.69448        0.56184        1.67131
H         -0.16895        2.92410        2.42691
H          0.14691        2.45971        0.85879
H          0.55420        1.95962        5.65903
