9
Methionine
C          4.80570        5.45034       -3.20746
S          4.33589        3.85395       -3.91944
C          5.33876        2.54326       -3.17618
C          4.94422        1.20265       -3.77409
C          5.45089       -0.04394       -3.06719
N          4.96090       -0.05467       -1.68130
C          6.97089       -0.04394       -3.06719
O          7.60634       -0.05246       -1.96659
O          7.68089       -0.03442       -4.29691
