23
Phenylalanine
N          0.96063        0.04983        0.07725
C          0.47063       -1.00379       -0.82313
C          0.97729       -2.35480       -0.34514
C          0.47063       -2.61635        1.06386
C          0.11309       -1.54955        1.87175
C         -0.00972       -1.88348        3.24123
C         -0.14183       -3.11356        3.70326
C          0.16131       -4.12519        2.83482
C          0.42106       -3.86577        1.51077
C         -1.04937       -1.00380       -0.82313
O         -1.75938       -0.77936       -2.03223
O         -1.68482       -1.20467        0.25902
H          0.62063       -0.12568        1.02276
H          1.98063        0.04983        0.07725
H          0.82729       -0.81968       -1.81499
H          0.62063       -3.12172       -1.00051
H          2.04729       -2.35479       -0.34514
H         -0.05499       -0.56249        1.49445
H          0.00550       -1.08374        3.95192
H         -0.46852       -3.30807        4.70343
H          0.19676       -5.13339        3.19144
H          0.58489       -4.67790        0.83364
H         -1.25938       -0.62130       -2.88371
