7
Serine
C          1.00876        0.08661       -0.04921
C          0.50210        1.41382       -0.58978
C          1.00877        1.60927       -2.00946
O          0.18290        1.74102       -2.96642
O          2.40486        1.64466       -2.26651
N         -0.96790        1.41382       -0.58978
O          2.42876        0.08661       -0.04921
