14
Serine
C          1.03643       -0.00334       -0.09307
C          0.52976       -0.83789       -1.25806
C          1.03642       -2.26408       -1.11782
O          0.21055       -3.22542       -1.02329
O          2.43251       -2.52232       -1.09243
N         -0.94024       -0.83788       -1.25806
O          0.56310       -0.55605        1.12630
H          0.67977        1.00063       -0.19179
H          2.10643       -0.00334       -0.09307
H          0.88643       -0.42140       -2.17688
H          2.76584       -3.46060       -1.00016
H         -1.28024       -1.39791       -2.03984
H         -1.28023       -1.23491       -0.38218
H          0.89643       -1.49434        1.21856
