15
Tryptophan
C          1.09802       -4.73253        3.06423
N          1.31125       -6.11432        3.33713
C          0.74793       -6.83012        2.26204
C          0.76205       -8.18480        1.95932
C          0.18718       -8.56814        0.75217
C         -0.39073       -7.64775       -0.10175
C         -0.40660       -6.32735        0.20203
C          0.17969       -5.89666        1.38850
C          0.40792       -4.58307        1.92229
C         -0.04693       -3.26882        1.30889
C         -0.82897       -3.54196        0.03445
N         -1.99947       -2.65446       -0.02191
C         -1.29026       -4.99023        0.02362
O         -2.53075       -5.26166       -0.02844
O         -0.33518       -6.03995        0.07167
