27
Tryptophan
C         -5.19831       -3.82337        2.52167
N         -5.94481       -3.96892        3.72617
C         -6.18111       -2.66853        4.21471
C         -6.94092       -2.21925        5.28607
C         -7.05172       -0.84227        5.44828
C         -6.41959        0.04271        4.59536
C         -5.67442       -0.40202        3.55472
C         -5.55701       -1.77215        3.34044
C         -4.93857       -2.52721        2.28690
C         -4.13916       -1.96404        1.12321
C         -2.92884       -2.88172        1.18150
N         -2.06855       -2.63274        0.01582
C         -3.39013       -4.32999        1.17066
O         -3.10043       -5.09645        2.14216
O         -4.14474       -4.82661        0.07507
H         -4.88858       -4.63215        1.89330
H         -6.24914       -4.84430        4.15218
H         -7.41982       -2.90153        5.95692
H         -7.64157       -0.45821        6.25419
H         -6.52020        1.09527        4.75934
H         -5.18223        0.29172        2.90560
H         -4.60910       -2.23814        0.20185
H         -4.10018       -0.89753        1.20026
H         -2.37832       -2.68944        2.07863
H         -1.09367       -2.77870        0.27793
H         -2.19495       -1.67182       -0.30207
H         -4.44822       -5.77943        0.06794
