19
Valine
C          0.97359       -0.09546        0.01376
C          0.46692        0.31780        1.38594
C          0.97358        1.71279        1.71414
C         -1.05308        0.31780        1.38594
C         -1.55975       -1.07718        1.05774
O         -2.29041       -1.70010        1.89039
O         -1.21670       -1.68439       -0.17919
N         -1.54309        0.71747        2.71299
H          0.61692        0.59562       -0.72116
H          0.61692       -1.07746       -0.21728
H          2.04359       -0.09546        0.01376
H          0.82358       -0.37328        2.12086
H          0.61691        2.40387        0.97923
H          0.61691        2.00370        2.68009
H          2.04358        1.71279        1.71414
H         -1.40975        1.00888        0.65103
H         -1.55004       -2.60215       -0.39511
H         -2.56309        0.71747        2.71299
H         -1.20309        0.05868        3.41356
