26
Arginine
N      2.826886   -1.416853    0.931555
C      2.167371   -0.351101    0.071233
C      0.853360   -0.922904   -0.358283
C     -0.048887   -0.167961   -1.223932
C     -0.625155    1.119003   -0.787972
N     -1.375999    0.956837    0.450466
C     -2.583372    0.238494    0.565320
N     -3.279337   -0.302895   -0.551465
N     -3.106311    0.044490    1.729402
C      2.126385    0.801019    0.980281
O      2.267473    2.089697    0.522016
O      1.965707    0.602120    2.210875
H      3.366210   -2.034848    0.306111
H      2.059450   -1.946608    1.371613
H      2.841982   -0.209664   -0.776486
H      1.144753   -1.863331   -0.951855
H      0.323114   -1.405545    0.522803
H      0.478276   -0.031774   -2.223825
H     -0.943388   -0.841640   -1.457843
H      0.060858    1.959410   -0.734076
H     -1.409115    1.411720   -1.570801
H     -0.979640    1.408311    1.298921
H     -3.629594    0.296004   -1.308643
H     -3.442318   -1.321691   -0.616802
H     -3.994065   -0.477737    1.869924
H      2.935356    2.367447   -0.205330
