16
Aspartic_acid
O      0.784245    1.590719    1.565339
C      1.395115    0.955173    0.684911
O      2.686731    1.340686    0.365628
C      0.808572   -0.173601   -0.020699
C     -0.601523   -0.527496    0.303290
N     -0.902171   -1.709909   -0.546731
C     -1.598816    0.504887    0.022083
O     -1.607428    1.590502    0.633333
O     -2.564531    0.286635   -0.944446
H      3.485490    1.216444    0.955465
H      0.918528   -0.010920   -1.135314
H      1.467734   -1.067022    0.194229
H     -0.650137   -0.910111    1.351300
H     -0.519445   -1.467383   -1.491459
H     -0.379829   -2.534177   -0.215086
H     -2.722535    0.915575   -1.721843
