14
Cysteine
C      1.005585   -0.861501   -0.406471
C     -0.083737    0.191932   -0.255890
C     -1.416208   -0.317001   -0.576579
O     -1.670295   -0.851049   -1.659969
O     -2.429952   -0.201908    0.354406
N      0.048822    0.777866    1.028397
S      2.572652   -0.039179    0.033536
H      0.815296   -1.638111    0.343600
H      1.044912   -1.265512   -1.429529
H      0.165057    0.979912   -1.018987
H     -2.334562    0.347484    1.212368
H      0.299257    0.151355    1.797262
H     -0.607571    1.538990    1.251420
H      2.590741    1.186722   -0.673561
