20
Glutamine
O      1.460010   -0.171883    1.770684
C      1.945925   -0.058036    0.623966
N      3.315100    0.348141    0.559895
C      1.153227   -0.327879   -0.596567
C     -0.254380   -0.659321   -0.280435
C     -1.053088    0.376132    0.429486
N     -1.149178    1.615075   -0.326781
C     -2.457548   -0.161891    0.531096
O     -3.442322    0.428241    0.023358
O     -2.723580   -1.357508    1.204941
H      3.619959    1.278134    0.201787
H      4.045311   -0.323513    0.889523
H      1.607800   -1.260720   -1.045131
H      1.296235    0.448504   -1.359391
H     -0.832589   -0.975028   -1.195279
H     -0.288709   -1.587518    0.366391
H     -0.674950    0.624341    1.436365
H     -1.925723    1.558502   -1.045449
H     -1.463679    2.379669    0.338534
H     -2.177822   -2.173442    1.087572
