22
Leucine
C     -0.891278    1.604424    0.058668
C     -1.201628    0.233737   -0.454111
C     -2.590691   -0.159600    0.089885
C     -0.208637   -0.772813   -0.029941
C      1.202355   -0.653788   -0.455613
C      1.945897    0.531899   -0.079135
O      1.950016    1.621351   -0.726852
O      2.740629    0.520724    1.091172
N      1.931449   -1.803292    0.160740
H     -0.590963    2.319606   -0.714774
H     -1.806588    2.037705    0.605578
H     -0.150657    1.527816    0.875102
H     -1.329481    0.282457   -1.567449
H     -2.630316    0.281921    1.117624
H     -3.346230    0.367178   -0.521319
H     -2.714364   -1.256555    0.089808
H     -0.590204   -1.779356   -0.388763
H     -0.251345   -0.887525    1.104757
H      1.339488   -0.832474   -1.554260
H      3.012576    1.359584    1.555780
H      2.841580   -1.902907   -0.336621
H      1.338392   -2.640092    0.153192
