20
Methionine
C      3.165504   -0.509021    0.724713
S      2.616495    1.019161   -0.109335
C      0.929668    0.788391   -0.750134
C      0.003979    0.632148    0.401609
C     -1.441628    0.449056    0.031912
N     -2.239607    0.313629    1.258737
C     -1.647913   -0.783347   -0.745948
O     -1.157362   -0.876660   -1.891499
O     -2.368593   -1.831568   -0.237123
H      3.203541   -1.359161    0.018772
H      4.158093   -0.295409    1.150375
H      2.467842   -0.788141    1.538994
H      0.928783   -0.153749   -1.352132
H      0.677294    1.670092   -1.351354
H      0.379849   -0.243065    1.004623
H      0.127195    1.502303    1.082211
H     -1.814243    1.323799   -0.552588
H     -3.145765   -0.099809    1.008332
H     -2.349336    1.272663    1.638080
H     -2.493797   -2.031310    0.746321
