14
Serine
C     -1.205295   -0.138760   -0.648813
C     -0.059143   -0.667758    0.211962
C      1.242632   -0.457150   -0.431694
O      1.511227   -0.978141   -1.534455
O      2.198206    0.328474    0.180197
N     -0.153683    0.029159    1.482464
O     -1.014705    1.223062   -0.785155
H     -2.126076   -0.267503   -0.017540
H     -1.280360   -0.683684   -1.600758
H     -0.224816   -1.766124    0.387234
H      2.437718    1.255568   -0.140986
H      0.231995   -0.557954    2.267608
H      0.323291    0.951145    1.422178
H     -1.880991    1.729666   -0.792243
