27
Tryptophan
C     -0.228911   -1.709980    0.690004
N     -1.572601   -1.786895    0.903357
C     -2.158573   -0.739697    0.310833
C     -3.497792   -0.361621    0.228702
C     -3.862480    0.787088   -0.465142
C     -2.909011    1.566067   -1.080114
C     -1.591781    1.178458   -0.987602
C     -1.206932    0.036107   -0.299208
C      0.022473   -0.578739   -0.059352
C      1.296885   -0.003496   -0.531099
C      2.449035   -0.232634    0.414754
N      2.133284    0.342514    1.708129
C      3.654731    0.427974   -0.177415
O      4.272243    1.313008    0.460806
O      4.096283    0.072311   -1.424744
H      0.512506   -2.403362    1.047855
H     -2.022962   -2.545399    1.446210
H     -4.254587   -0.956939    0.698047
H     -4.920536    1.054057   -0.510363
H     -3.202509    2.469150   -1.620860
H     -0.820526    1.771137   -1.465605
H      1.548804   -0.440545   -1.524828
H      1.176801    1.106353   -0.691108
H      2.642700   -1.310959    0.570851
H      1.140752    0.633515    1.803731
H      2.482072   -0.260789    2.486821
H      4.820631    0.573316   -1.932659
