Arginine
     RDKit          3D

 26 25  0  0  0  0  0  0  0  0999 V2000
    2.8269   -1.4169    0.9316 N   0  0  0  0  0  0  0  0  0  0  0  0
    2.1674   -0.3511    0.0712 C   0  0  0  0  0  0  0  0  0  0  0  0
    0.8534   -0.9229   -0.3583 C   0  0  0  0  0  0  0  0  0  0  0  0
   -0.0489   -0.1680   -1.2239 C   0  0  0  0  0  0  0  0  0  0  0  0
   -0.6252    1.1190   -0.7880 C   0  0  0  0  0  0  0  0  0  0  0  0
   -1.3760    0.9568    0.4505 N   0  0  0  0  0  0  0  0  0  0  0  0
   -2.5834    0.2385    0.5653 C   0  0  0  0  0  0  0  0  0  0  0  0
   -3.2793   -0.3029   -0.5515 N   0  0  0  0  0  0  0  0  0  0  0  0
   -3.1063    0.0445    1.7294 N   0  0  0  0  0  0  0  0  0  0  0  0
    2.1264    0.8010    0.9803 C   0  0  0  0  0  0  0  0  0  0  0  0
    2.2675    2.0897    0.5220 O   0  0  0  0  0  0  0  0  0  0  0  0
    1.9657    0.6021    2.2109 O   0  0  0  0  0  0  0  0  0  0  0  0
    3.3662   -2.0348    0.3061 H   0  0  0  0  0  0  0  0  0  0  0  0
    2.0595   -1.9466    1.3716 H   0  0  0  0  0  0  0  0  0  0  0  0
    2.8420   -0.2097   -0.7765 H   0  0  0  0  0  0  0  0  0  0  0  0
    1.1448   -1.8633   -0.9519 H   0  0  0  0  0  0  0  0  0  0  0  0
    0.3231   -1.4055    0.5228 H   0  0  0  0  0  0  0  0  0  0  0  0
    0.4783   -0.0318   -2.2238 H   0  0  0  0  0  0  0  0  0  0  0  0
   -0.9434   -0.8416   -1.4578 H   0  0  0  0  0  0  0  0  0  0  0  0
    0.0609    1.9594   -0.7341 H   0  0  0  0  0  0  0  0  0  0  0  0
   -1.4091    1.4117   -1.5708 H   0  0  0  0  0  0  0  0  0  0  0  0
   -0.9796    1.4083    1.2989 H   0  0  0  0  0  0  0  0  0  0  0  0
   -3.6296    0.2960   -1.3086 H   0  0  0  0  0  0  0  0  0  0  0  0
   -3.4423   -1.3217   -0.6168 H   0  0  0  0  0  0  0  0  0  0  0  0
   -3.9941   -0.4777    1.8699 H   0  0  0  0  0  0  0  0  0  0  0  0
    2.9354    2.3674   -0.2053 H   0  0  0  0  0  0  0  0  0  0  0  0
  1  2  1  0
  2  3  1  0
  3  4  1  0
  4  5  1  0
  5  6  1  0
  6  7  1  0
  7  8  1  0
  7  9  2  3
  2 10  1  0
 10 11  1  0
 10 12  2  0
  1 13  1  0
  1 14  1  0
  2 15  1  0
  3 16  1  0
  3 17  1  0
  4 18  1  0
  4 19  1  0
  5 20  1  0
  5 21  1  0
  6 22  1  0
  8 23  1  0
  8 24  1  0
  9 25  1  0
 11 26  1  0
M  END
$$$$
