Cysteine
     RDKit          3D

 14 13  0  0  0  0  0  0  0  0999 V2000
    1.0056   -0.8615   -0.4065 C   0  0  0  0  0  0  0  0  0  0  0  0
   -0.0837    0.1919   -0.2559 C   0  0  1  0  0  0  0  0  0  0  0  0
   -1.4162   -0.3170   -0.5766 C   0  0  0  0  0  0  0  0  0  0  0  0
   -1.6703   -0.8510   -1.6600 O   0  0  0  0  0  0  0  0  0  0  0  0
   -2.4300   -0.2019    0.3544 O   0  0  0  0  0  0  0  0  0  0  0  0
    0.0488    0.7779    1.0284 N   0  0  0  0  0  0  0  0  0  0  0  0
    2.5727   -0.0392    0.0335 S   0  0  0  0  0  0  0  0  0  0  0  0
    0.8153   -1.6381    0.3436 H   0  0  0  0  0  0  0  0  0  0  0  0
    1.0449   -1.2655   -1.4295 H   0  0  0  0  0  0  0  0  0  0  0  0
    0.1651    0.9799   -1.0190 H   0  0  0  0  0  0  0  0  0  0  0  0
   -2.3346    0.3475    1.2124 H   0  0  0  0  0  0  0  0  0  0  0  0
    0.2993    0.1514    1.7973 H   0  0  0  0  0  0  0  0  0  0  0  0
   -0.6076    1.5390    1.2514 H   0  0  0  0  0  0  0  0  0  0  0  0
    2.5907    1.1867   -0.6736 H   0  0  0  0  0  0  0  0  0  0  0  0
  1  2  1  0
  2  3  1  0
  3  4  2  0
  3  5  1  0
  2  6  1  0
  1  7  1  0
  1  8  1  0
  1  9  1  0
  2 10  1  6
  5 11  1  0
  6 12  1  0
  6 13  1  0
  7 14  1  0
M  END
$$$$
