Leucine
     RDKit          3D

 22 21  0  0  0  0  0  0  0  0999 V2000
   -0.8913    1.6044    0.0587 C   0  0  0  0  0  0  0  0  0  0  0  0
   -1.2016    0.2337   -0.4541 C   0  0  0  0  0  0  0  0  0  0  0  0
   -2.5907   -0.1596    0.0899 C   0  0  0  0  0  0  0  0  0  0  0  0
   -0.2086   -0.7728   -0.0299 C   0  0  0  0  0  0  0  0  0  0  0  0
    1.2024   -0.6538   -0.4556 C   0  0  1  0  0  0  0  0  0  0  0  0
    1.9459    0.5319   -0.0791 C   0  0  0  0  0  0  0  0  0  0  0  0
    1.9500    1.6214   -0.7269 O   0  0  0  0  0  0  0  0  0  0  0  0
    2.7406    0.5207    1.0912 O   0  0  0  0  0  0  0  0  0  0  0  0
    1.9314   -1.8033    0.1607 N   0  0  0  0  0  0  0  0  0  0  0  0
   -0.5910    2.3196   -0.7148 H   0  0  0  0  0  0  0  0  0  0  0  0
   -1.8066    2.0377    0.6056 H   0  0  0  0  0  0  0  0  0  0  0  0
   -0.1507    1.5278    0.8751 H   0  0  0  0  0  0  0  0  0  0  0  0
   -1.3295    0.2825   -1.5674 H   0  0  0  0  0  0  0  0  0  0  0  0
   -2.6303    0.2819    1.1176 H   0  0  0  0  0  0  0  0  0  0  0  0
   -3.3462    0.3672   -0.5213 H   0  0  0  0  0  0  0  0  0  0  0  0
   -2.7144   -1.2566    0.0898 H   0  0  0  0  0  0  0  0  0  0  0  0
   -0.5902   -1.7794   -0.3888 H   0  0  0  0  0  0  0  0  0  0  0  0
   -0.2513   -0.8875    1.1048 H   0  0  0  0  0  0  0  0  0  0  0  0
    1.3395   -0.8325   -1.5543 H   0  0  0  0  0  0  0  0  0  0  0  0
    3.0126    1.3596    1.5558 H   0  0  0  0  0  0  0  0  0  0  0  0
    2.8416   -1.9029   -0.3366 H   0  0  0  0  0  0  0  0  0  0  0  0
    1.3384   -2.6401    0.1532 H   0  0  0  0  0  0  0  0  0  0  0  0
  1  2  1  0
  2  3  1  0
  2  4  1  0
  4  5  1  0
  5  6  1  0
  6  7  2  0
  6  8  1  0
  5  9  1  0
  1 10  1  0
  1 11  1  0
  1 12  1  0
  2 13  1  0
  3 14  1  0
  3 15  1  0
  3 16  1  0
  4 17  1  0
  4 18  1  0
  5 19  1  6
  8 20  1  0
  9 21  1  0
  9 22  1  0
M  END
$$$$
