Methionine
     RDKit          3D

 20 19  0  0  0  0  0  0  0  0999 V2000
    3.1655   -0.5090    0.7247 C   0  0  0  0  0  0  0  0  0  0  0  0
    2.6165    1.0192   -0.1093 S   0  0  0  0  0  0  0  0  0  0  0  0
    0.9297    0.7884   -0.7501 C   0  0  0  0  0  0  0  0  0  0  0  0
    0.0040    0.6321    0.4016 C   0  0  0  0  0  0  0  0  0  0  0  0
   -1.4416    0.4491    0.0319 C   0  0  2  0  0  0  0  0  0  0  0  0
   -2.2396    0.3136    1.2587 N   0  0  0  0  0  0  0  0  0  0  0  0
   -1.6479   -0.7833   -0.7459 C   0  0  0  0  0  0  0  0  0  0  0  0
   -1.1574   -0.8767   -1.8915 O   0  0  0  0  0  0  0  0  0  0  0  0
   -2.3686   -1.8316   -0.2371 O   0  0  0  0  0  0  0  0  0  0  0  0
    3.2035   -1.3592    0.0188 H   0  0  0  0  0  0  0  0  0  0  0  0
    4.1581   -0.2954    1.1504 H   0  0  0  0  0  0  0  0  0  0  0  0
    2.4678   -0.7881    1.5390 H   0  0  0  0  0  0  0  0  0  0  0  0
    0.9288   -0.1537   -1.3521 H   0  0  0  0  0  0  0  0  0  0  0  0
    0.6773    1.6701   -1.3514 H   0  0  0  0  0  0  0  0  0  0  0  0
    0.3798   -0.2431    1.0046 H   0  0  0  0  0  0  0  0  0  0  0  0
    0.1272    1.5023    1.0822 H   0  0  0  0  0  0  0  0  0  0  0  0
   -1.8142    1.3238   -0.5526 H   0  0  0  0  0  0  0  0  0  0  0  0
   -3.1458   -0.0998    1.0083 H   0  0  0  0  0  0  0  0  0  0  0  0
   -2.3493    1.2727    1.6381 H   0  0  0  0  0  0  0  0  0  0  0  0
   -2.4938   -2.0313    0.7463 H   0  0  0  0  0  0  0  0  0  0  0  0
  1  2  1  0
  2  3  1  0
  3  4  1  0
  4  5  1  0
  5  6  1  0
  5  7  1  0
  7  8  2  0
  7  9  1  0
  1 10  1  0
  1 11  1  0
  1 12  1  0
  3 13  1  0
  3 14  1  0
  4 15  1  0
  4 16  1  0
  5 17  1  6
  6 18  1  0
  6 19  1  0
  9 20  1  0
M  END
$$$$
