Proline
     RDKit          3D

 17 17  0  0  0  0  0  0  0  0999 V2000
    2.9488   -0.1566   -0.2439 O   0  0  0  0  0  0  0  0  0  0  0  0
    1.7251    0.1173   -0.7885 C   0  0  0  0  0  0  0  0  0  0  0  0
    1.6221    1.0321   -1.6856 O   0  0  0  0  0  0  0  0  0  0  0  0
    0.5111   -0.6045   -0.4178 C   0  0  0  0  0  0  0  0  0  0  0  0
   -0.6877    0.1757   -1.0333 C   0  0  0  0  0  0  0  0  0  0  0  0
   -1.7438   -0.1807   -0.0122 C   0  0  0  0  0  0  0  0  0  0  0  0
   -0.9583    0.1374    1.2723 C   0  0  0  0  0  0  0  0  0  0  0  0
    0.2756   -0.4912    1.0245 N   0  0  0  0  0  0  0  0  0  0  0  0
    3.1351    0.3825    0.6319 H   0  0  0  0  0  0  0  0  0  0  0  0
    0.4275   -1.6354   -0.7938 H   0  0  0  0  0  0  0  0  0  0  0  0
   -0.8937   -0.1555   -2.0202 H   0  0  0  0  0  0  0  0  0  0  0  0
   -0.4274    1.2551   -0.8849 H   0  0  0  0  0  0  0  0  0  0  0  0
   -1.9499   -1.2464    0.0488 H   0  0  0  0  0  0  0  0  0  0  0  0
   -2.6654    0.4400   -0.0569 H   0  0  0  0  0  0  0  0  0  0  0  0
   -0.8703    1.2580    1.2915 H   0  0  0  0  0  0  0  0  0  0  0  0
   -1.5208   -0.2297    2.1768 H   0  0  0  0  0  0  0  0  0  0  0  0
    1.0719   -0.0980    1.4912 H   0  0  0  0  0  0  0  0  0  0  0  0
  1  2  1  0
  2  3  2  0
  2  4  1  0
  4  5  1  0
  5  6  1  0
  6  7  1  0
  7  8  1  0
  8  4  1  0
  1  9  1  0
  4 10  1  0
  5 11  1  0
  5 12  1  0
  6 13  1  0
  6 14  1  0
  7 15  1  0
  7 16  1  0
  8 17  1  0
M  END
$$$$
