Threonine
     RDKit          3D

 17 16  0  0  0  0  0  0  0  0999 V2000
   -1.4088   -0.7004    0.4308 C   0  0  0  0  0  0  0  0  0  0  0  0
   -0.8315    0.6224    0.0183 C   0  0  2  0  0  0  0  0  0  0  0  0
    0.5585    0.5105   -0.5519 C   0  0  1  0  0  0  0  0  0  0  0  0
    1.5569    0.1818    0.4971 C   0  0  0  0  0  0  0  0  0  0  0  0
    1.6448    0.8088    1.5803 O   0  0  0  0  0  0  0  0  0  0  0  0
    2.4426   -0.8639    0.2888 O   0  0  0  0  0  0  0  0  0  0  0  0
    0.6549   -0.3393   -1.6858 N   0  0  0  0  0  0  0  0  0  0  0  0
   -0.8259    1.4638    1.1102 O   0  0  0  0  0  0  0  0  0  0  0  0
   -2.4661   -0.5210    0.7199 H   0  0  0  0  0  0  0  0  0  0  0  0
   -1.4531   -1.4250   -0.4219 H   0  0  0  0  0  0  0  0  0  0  0  0
   -0.8890   -1.1357    1.3135 H   0  0  0  0  0  0  0  0  0  0  0  0
   -1.4917    1.0471   -0.7650 H   0  0  0  0  0  0  0  0  0  0  0  0
    0.8248    1.5487   -0.9053 H   0  0  0  0  0  0  0  0  0  0  0  0
    2.7189   -1.4863    1.0515 H   0  0  0  0  0  0  0  0  0  0  0  0
    0.3569   -1.3125   -1.5485 H   0  0  0  0  0  0  0  0  0  0  0  0
    0.3712    0.0824   -2.5888 H   0  0  0  0  0  0  0  0  0  0  0  0
   -1.7634    1.5186    1.4565 H   0  0  0  0  0  0  0  0  0  0  0  0
  1  2  1  0
  2  3  1  0
  3  4  1  0
  4  5  2  0
  4  6  1  0
  3  7  1  0
  2  8  1  0
  1  9  1  0
  1 10  1  0
  1 11  1  0
  2 12  1  6
  3 13  1  6
  6 14  1  0
  7 15  1  0
  7 16  1  0
  8 17  1  0
M  END
$$$$
