Valine
     RDKit          3D

 19 18  0  0  0  0  0  0  0  0999 V2000
    1.1720    0.8607   -0.8110 C   0  0  0  0  0  0  0  0  0  0  0  0
    0.7204   -0.4811   -0.3068 C   0  0  0  0  0  0  0  0  0  0  0  0
    1.5319   -0.8107    0.9243 C   0  0  0  0  0  0  0  0  0  0  0  0
   -0.7563   -0.5475   -0.0278 C   0  0  1  0  0  0  0  0  0  0  0  0
   -1.1997    0.4233    0.9909 C   0  0  0  0  0  0  0  0  0  0  0  0
   -0.6305    0.4553    2.1126 O   0  0  0  0  0  0  0  0  0  0  0  0
   -2.2293    1.3359    0.8063 O   0  0  0  0  0  0  0  0  0  0  0  0
   -1.5059   -0.4549   -1.2497 N   0  0  0  0  0  0  0  0  0  0  0  0
    0.6185    1.1518   -1.7456 H   0  0  0  0  0  0  0  0  0  0  0  0
    2.2511    0.7520   -1.0755 H   0  0  0  0  0  0  0  0  0  0  0  0
    1.1259    1.6525   -0.0409 H   0  0  0  0  0  0  0  0  0  0  0  0
    0.9367   -1.2245   -1.1002 H   0  0  0  0  0  0  0  0  0  0  0  0
    0.9304   -1.4560    1.6030 H   0  0  0  0  0  0  0  0  0  0  0  0
    2.4608   -1.3442    0.6390 H   0  0  0  0  0  0  0  0  0  0  0  0
    1.8357    0.1037    1.4751 H   0  0  0  0  0  0  0  0  0  0  0  0
   -0.9471   -1.5648    0.3947 H   0  0  0  0  0  0  0  0  0  0  0  0
   -2.1706    2.1390    0.1996 H   0  0  0  0  0  0  0  0  0  0  0  0
   -1.9805   -1.3482   -1.5142 H   0  0  0  0  0  0  0  0  0  0  0  0
   -2.1637    0.3578   -1.2736 H   0  0  0  0  0  0  0  0  0  0  0  0
  1  2  1  0
  2  3  1  0
  2  4  1  0
  4  5  1  0
  5  6  2  0
  5  7  1  0
  4  8  1  0
  1  9  1  0
  1 10  1  0
  1 11  1  0
  2 12  1  0
  3 13  1  0
  3 14  1  0
  3 15  1  0
  4 16  1  1
  7 17  1  0
  8 18  1  0
  8 19  1  0
M  END
$$$$
