Asparagine
     RDKit          3D

 17 16  0  0  0  0  0  0  0  0999 V2000
    1.4925   -0.0391   -1.7241 O   0  0  0  0  0  0  0  0  0  0  0  0
    1.6135   -0.3423   -0.5174 C   0  0  0  0  0  0  0  0  0  0  0  0
    2.9442   -0.5838   -0.0502 N   0  0  0  0  0  0  0  0  0  0  0  0
    0.4413   -0.4476    0.3871 C   0  0  0  0  0  0  0  0  0  0  0  0
   -0.7970   -0.1349   -0.4122 C   0  0  2  0  0  0  0  0  0  0  0  0
   -0.7103    1.1906   -0.9466 N   0  0  0  0  0  0  0  0  0  0  0  0
   -2.0233   -0.2905    0.3759 C   0  0  0  0  0  0  0  0  0  0  0  0
   -2.3092   -1.3797    0.9432 O   0  0  0  0  0  0  0  0  0  0  0  0
   -2.8950    0.7747    0.5078 O   0  0  0  0  0  0  0  0  0  0  0  0
    3.2264   -1.4970    0.3233 H   0  0  0  0  0  0  0  0  0  0  0  0
    3.6182    0.2095   -0.1051 H   0  0  0  0  0  0  0  0  0  0  0  0
    0.3863   -1.4593    0.8131 H   0  0  0  0  0  0  0  0  0  0  0  0
    0.5875    0.3205    1.1857 H   0  0  0  0  0  0  0  0  0  0  0  0
   -0.8259   -0.8397   -1.2731 H   0  0  0  0  0  0  0  0  0  0  0  0
    0.2033    1.6652   -0.7671 H   0  0  0  0  0  0  0  0  0  0  0  0
   -1.5244    1.7443   -0.6577 H   0  0  0  0  0  0  0  0  0  0  0  0
   -3.4281    1.1092   -0.2861 H   0  0  0  0  0  0  0  0  0  0  0  0
  1  2  2  0
  2  3  1  0
  2  4  1  0
  4  5  1  0
  5  6  1  0
  5  7  1  0
  7  8  2  0
  7  9  1  0
  3 10  1  0
  3 11  1  0
  4 12  1  0
  4 13  1  0
  5 14  1  6
  6 15  1  0
  6 16  1  0
  9 17  1  0
M  END
