Glutamine
     RDKit          3D

 20 19  0  0  0  0  0  0  0  0999 V2000
    1.4600   -0.1719    1.7707 O   0  0  0  0  0  0  0  0  0  0  0  0
    1.9459   -0.0580    0.6240 C   0  0  0  0  0  0  0  0  0  0  0  0
    3.3151    0.3481    0.5599 N   0  0  0  0  0  0  0  0  0  0  0  0
    1.1532   -0.3279   -0.5966 C   0  0  0  0  0  0  0  0  0  0  0  0
   -0.2544   -0.6593   -0.2804 C   0  0  0  0  0  0  0  0  0  0  0  0
   -1.0531    0.3761    0.4295 C   0  0  0  0  0  0  0  0  0  0  0  0
   -1.1492    1.6151   -0.3268 N   0  0  0  0  0  0  0  0  0  0  0  0
   -2.4575   -0.1619    0.5311 C   0  0  0  0  0  0  0  0  0  0  0  0
   -3.4423    0.4282    0.0234 O   0  0  0  0  0  0  0  0  0  0  0  0
   -2.7236   -1.3575    1.2049 O   0  0  0  0  0  0  0  0  0  0  0  0
    3.6200    1.2781    0.2018 H   0  0  0  0  0  0  0  0  0  0  0  0
    4.0453   -0.3235    0.8895 H   0  0  0  0  0  0  0  0  0  0  0  0
    1.6078   -1.2607   -1.0451 H   0  0  0  0  0  0  0  0  0  0  0  0
    1.2962    0.4485   -1.3594 H   0  0  0  0  0  0  0  0  0  0  0  0
   -0.8326   -0.9750   -1.1953 H   0  0  0  0  0  0  0  0  0  0  0  0
   -0.2887   -1.5875    0.3664 H   0  0  0  0  0  0  0  0  0  0  0  0
   -0.6750    0.6243    1.4364 H   0  0  0  0  0  0  0  0  0  0  0  0
   -1.9257    1.5585   -1.0454 H   0  0  0  0  0  0  0  0  0  0  0  0
   -1.4637    2.3797    0.3385 H   0  0  0  0  0  0  0  0  0  0  0  0
   -2.1778   -2.1734    1.0876 H   0  0  0  0  0  0  0  0  0  0  0  0
  1  2  2  0
  2  3  1  0
  2  4  1  0
  4  5  1  0
  5  6  1  0
  6  7  1  0
  6  8  1  0
  8  9  2  0
  8 10  1  0
  3 11  1  0
  3 12  1  0
  4 13  1  0
  4 14  1  0
  5 15  1  0
  5 16  1  0
  6 17  1  0
  7 18  1  0
  7 19  1  0
 10 20  1  0
M  END
