Glutamic_acid
     RDKit          3D

 19 18  0  0  0  0  0  0  0  0999 V2000
    0.2993    0.0623    0.6662 C   0  0  0  0  0  0  0  0  0  0  0  0
    1.3813   -0.6742   -0.1020 C   0  0  0  0  0  0  0  0  0  0  0  0
    2.7200   -0.2216    0.3495 C   0  0  0  0  0  0  0  0  0  0  0  0
    3.1893   -0.6784    1.4264 O   0  0  0  0  0  0  0  0  0  0  0  0
    3.4763    0.6973   -0.3847 O   0  0  0  0  0  0  0  0  0  0  0  0
   -1.0758   -0.3597    0.2457 C   0  0  1  0  0  0  0  0  0  0  0  0
   -2.0576    0.4081    1.0451 C   0  0  0  0  0  0  0  0  0  0  0  0
   -2.0198    0.2980    2.2943 O   0  0  0  0  0  0  0  0  0  0  0  0
   -3.0117    1.2407    0.4570 O   0  0  0  0  0  0  0  0  0  0  0  0
   -1.3337   -0.0770   -1.1566 N   0  0  0  0  0  0  0  0  0  0  0  0
    0.4271   -0.1663    1.7308 H   0  0  0  0  0  0  0  0  0  0  0  0
    0.4363    1.1343    0.5090 H   0  0  0  0  0  0  0  0  0  0  0  0
    1.3030   -0.4754   -1.1889 H   0  0  0  0  0  0  0  0  0  0  0  0
    1.2947   -1.7791    0.0460 H   0  0  0  0  0  0  0  0  0  0  0  0
    3.8532    1.5351    0.0672 H   0  0  0  0  0  0  0  0  0  0  0  0
   -1.2710   -1.4294    0.4292 H   0  0  0  0  0  0  0  0  0  0  0  0
   -3.9085    0.8836    0.1570 H   0  0  0  0  0  0  0  0  0  0  0  0
   -1.5685   -0.9563   -1.6828 H   0  0  0  0  0  0  0  0  0  0  0  0
   -2.1339    0.5580   -1.2833 H   0  0  0  0  0  0  0  0  0  0  0  0
  1  2  1  0
  2  3  1  0
  3  4  2  0
  3  5  1  0
  1  6  1  0
  6  7  1  0
  7  8  2  0
  7  9  1  0
  6 10  1  0
  1 11  1  0
  1 12  1  0
  2 13  1  0
  2 14  1  0
  5 15  1  0
  6 16  1  6
  9 17  1  0
 10 18  1  0
 10 19  1  0
M  END
