Glycine
     RDKit          3D

 10  9  0  0  0  0  0  0  0  0999 V2000
    0.4226   -0.2741   -0.3571 C   0  0  0  0  0  0  0  0  0  0  0  0
   -0.8708    0.3383   -0.0533 C   0  0  0  0  0  0  0  0  0  0  0  0
   -0.9390    1.3208    0.7097 O   0  0  0  0  0  0  0  0  0  0  0  0
   -2.0232   -0.1669   -0.6085 O   0  0  0  0  0  0  0  0  0  0  0  0
    1.5012    0.3920    0.3146 N   0  0  0  0  0  0  0  0  0  0  0  0
    0.4721   -1.3549   -0.0502 H   0  0  0  0  0  0  0  0  0  0  0  0
    0.5526   -0.2974   -1.4707 H   0  0  0  0  0  0  0  0  0  0  0  0
   -2.5915   -0.7974   -0.0929 H   0  0  0  0  0  0  0  0  0  0  0  0
    2.2574   -0.2499    0.5953 H   0  0  0  0  0  0  0  0  0  0  0  0
    1.2186    1.0894    1.0130 H   0  0  0  0  0  0  0  0  0  0  0  0
  1  2  1  0
  2  3  2  0
  2  4  1  0
  1  5  1  0
  1  6  1  0
  1  7  1  0
  4  8  1  0
  5  9  1  0
  5 10  1  0
M  END
