Isoleucine
     RDKit          3D

 22 21  0  0  0  0  0  0  0  0999 V2000
    2.4060    0.5990    0.4203 C   0  0  0  0  0  0  0  0  0  0  0  0
    0.9993    0.7506   -0.0733 C   0  0  0  0  0  0  0  0  0  0  0  0
    0.1096   -0.3777    0.3906 C   0  0  2  0  0  0  0  0  0  0  0  0
    0.5867   -1.7218   -0.0870 C   0  0  0  0  0  0  0  0  0  0  0  0
   -1.2796   -0.1625   -0.1702 C   0  0  1  0  0  0  0  0  0  0  0  0
   -1.8768    1.1079    0.2707 C   0  0  0  0  0  0  0  0  0  0  0  0
   -2.3262    1.9069   -0.5746 O   0  0  0  0  0  0  0  0  0  0  0  0
   -1.9559    1.4466    1.6056 O   0  0  0  0  0  0  0  0  0  0  0  0
   -1.3305   -0.2495   -1.5941 N   0  0  0  0  0  0  0  0  0  0  0  0
    2.9163    1.5893    0.2355 H   0  0  0  0  0  0  0  0  0  0  0  0
    2.4738    0.4018    1.5073 H   0  0  0  0  0  0  0  0  0  0  0  0
    3.0021   -0.1347   -0.1791 H   0  0  0  0  0  0  0  0  0  0  0  0
    1.0136    0.7246   -1.1796 H   0  0  0  0  0  0  0  0  0  0  0  0
    0.5861    1.6825    0.3433 H   0  0  0  0  0  0  0  0  0  0  0  0
    0.0294   -0.3522    1.4873 H   0  0  0  0  0  0  0  0  0  0  0  0
    1.1825   -1.6184   -1.0209 H   0  0  0  0  0  0  0  0  0  0  0  0
    1.2065   -2.2425    0.6978 H   0  0  0  0  0  0  0  0  0  0  0  0
   -0.2542   -2.4298   -0.2959 H   0  0  0  0  0  0  0  0  0  0  0  0
   -1.8945   -1.0188    0.2392 H   0  0  0  0  0  0  0  0  0  0  0  0
   -2.8614    1.3560    2.0553 H   0  0  0  0  0  0  0  0  0  0  0  0
   -2.2330   -0.5528   -1.9782 H   0  0  0  0  0  0  0  0  0  0  0  0
   -0.4997   -0.7041   -2.0265 H   0  0  0  0  0  0  0  0  0  0  0  0
  1  2  1  0
  2  3  1  0
  3  4  1  0
  3  5  1  0
  5  6  1  0
  6  7  2  0
  6  8  1  0
  5  9  1  0
  1 10  1  0
  1 11  1  0
  1 12  1  0
  2 13  1  0
  2 14  1  0
  3 15  1  1
  4 16  1  0
  4 17  1  0
  4 18  1  0
  5 19  1  1
  8 20  1  0
  9 21  1  0
  9 22  1  0
M  END
