Phenylalanine
     RDKit          3D

 23 23  0  0  0  0  0  0  0  0999 V2000
    1.5733    1.3485    0.2010 N   0  0  0  0  0  0  0  0  0  0  0  0
    1.6617   -0.0293    0.5557 C   0  0  1  0  0  0  0  0  0  0  0  0
    0.8005   -0.9263   -0.2972 C   0  0  0  0  0  0  0  0  0  0  0  0
   -0.6348   -0.5907   -0.2184 C   0  0  0  0  0  0  0  0  0  0  0  0
   -1.2274    0.3098   -1.0740 C   0  0  0  0  0  0  0  0  0  0  0  0
   -2.5762    0.6197   -0.9935 C   0  0  0  0  0  0  0  0  0  0  0  0
   -3.3381    0.0075   -0.0305 C   0  0  0  0  0  0  0  0  0  0  0  0
   -2.7798   -0.9006    0.8451 C   0  0  0  0  0  0  0  0  0  0  0  0
   -1.4294   -1.1867    0.7365 C   0  0  0  0  0  0  0  0  0  0  0  0
    3.0735   -0.4654    0.3667 C   0  0  0  0  0  0  0  0  0  0  0  0
    4.0594    0.3911   -0.0805 O   0  0  0  0  0  0  0  0  0  0  0  0
    3.4341   -1.6596    0.6122 O   0  0  0  0  0  0  0  0  0  0  0  0
    1.5505    1.5058   -0.8114 H   0  0  0  0  0  0  0  0  0  0  0  0
    0.8397    1.8864    0.6694 H   0  0  0  0  0  0  0  0  0  0  0  0
    1.3604   -0.1817    1.6122 H   0  0  0  0  0  0  0  0  0  0  0  0
    1.1290   -0.8293   -1.3586 H   0  0  0  0  0  0  0  0  0  0  0  0
    0.9941   -1.9795   -0.0090 H   0  0  0  0  0  0  0  0  0  0  0  0
   -0.6202    0.7881   -1.8303 H   0  0  0  0  0  0  0  0  0  0  0  0
   -3.0398    1.3248   -1.6636 H   0  0  0  0  0  0  0  0  0  0  0  0
   -4.3852    0.2569    0.0217 H   0  0  0  0  0  0  0  0  0  0  0  0
   -3.3695   -1.3898    1.6085 H   0  0  0  0  0  0  0  0  0  0  0  0
   -1.0231   -1.9043    1.4399 H   0  0  0  0  0  0  0  0  0  0  0  0
    3.9474    1.3549   -0.3018 H   0  0  0  0  0  0  0  0  0  0  0  0
  1  2  1  0
  2  3  1  0
  3  4  1  0
  4  5  2  0
  5  6  1  0
  6  7  2  0
  7  8  1  0
  8  9  2  0
  2 10  1  0
 10 11  1  0
 10 12  2  0
  9  4  1  0
  1 13  1  0
  1 14  1  0
  2 15  1  1
  3 16  1  0
  3 17  1  0
  5 18  1  0
  6 19  1  0
  7 20  1  0
  8 21  1  0
  9 22  1  0
 11 23  1  0
M  END
