Asparagine
 OpenBabel10022015533D

 17 16  0  0  1  0  0  0  0  0999 V2000
    1.1274    3.9411   -0.3225 O   0  0  0  0  0  0  0  0  0  0  0  0
    0.7967    3.3965   -1.4222 C   0  0  0  0  0  0  0  0  0  0  0  0
    0.0301    4.1584   -2.4185 N   0  0  0  0  0  0  0  0  0  0  0  0
    1.1940    1.9572   -1.7072 C   0  0  0  0  0  0  0  0  0  0  0  0
    2.6884    1.6873   -1.6417 C   0  0  2  0  0  0  0  0  0  0  0  0
    3.0435    1.2212   -0.2935 N   0  0  0  0  0  0  0  0  0  0  0  0
    3.4484    2.9665   -1.9521 C   0  0  0  0  0  0  0  0  0  0  0  0
    4.2427    3.0092   -2.9433 O   0  0  0  0  0  0  0  0  0  0  0  0
    3.2709    4.1140   -1.1346 O   0  0  0  0  0  0  0  0  0  0  0  0
   -0.2353    3.7213   -3.3011 H   0  0  0  0  0  0  0  0  0  0  0  0
   -0.2364    5.1242   -2.2272 H   0  0  0  0  0  0  0  0  0  0  0  0
    0.7694    1.3160   -0.9632 H   0  0  0  0  0  0  0  0  0  0  0  0
    0.8319    1.6718   -2.6728 H   0  0  0  0  0  0  0  0  0  0  0  0
    2.9469    0.9360   -2.3584 H   0  0  0  0  0  0  0  0  0  0  0  0
    3.9674    1.5529   -0.0166 H   0  0  0  0  0  0  0  0  0  0  0  0
    3.0288    0.2015   -0.2752 H   0  0  0  0  0  0  0  0  0  0  0  0
    3.7709    4.9556   -1.3388 H   0  0  0  0  0  0  0  0  0  0  0  0
  1  2  2  0  0  0  0
  2  3  1  0  0  0  0
  2  4  1  0  0  0  0
  3 10  1  0  0  0  0
  3 11  1  0  0  0  0
  4 12  1  0  0  0  0
  4 13  1  0  0  0  0
  5  7  1  0  0  0  0
  5 14  1  6  0  0  0
  5  6  1  0  0  0  0
  5  4  1  0  0  0  0
  6 15  1  0  0  0  0
  6 16  1  0  0  0  0
  7  8  2  0  0  0  0
  7  9  1  0  0  0  0
  9 17  1  0  0  0  0
M  END
$$$$
