Cysteine
 OpenBabel10022015533D

 14 13  0  0  1  0  0  0  0  0999 V2000
    0.9204    0.0595    0.0115 C   0  0  0  0  0  0  0  0  0  0  0  0
    0.4138   -1.2930   -0.4624 C   0  0  1  0  0  0  0  0  0  0  0  0
    0.9204   -2.3796    0.4720 C   0  0  0  0  0  0  0  0  0  0  0  0
    0.0946   -3.1120    1.1019 O   0  0  0  0  0  0  0  0  0  0  0  0
    2.3165   -2.5763    0.6412 O   0  0  0  0  0  0  0  0  0  0  0  0
   -1.0562   -1.2930   -0.4624 N   0  0  0  0  0  0  0  0  0  0  0  0
    0.3171    0.3761    1.6883 S   0  0  0  0  0  0  0  0  0  0  0  0
    0.5638    0.8244   -0.6463 H   0  0  0  0  0  0  0  0  0  0  0  0
    1.9904    0.0595    0.0115 H   0  0  0  0  0  0  0  0  0  0  0  0
    0.7704   -1.4802   -1.4536 H   0  0  0  0  0  0  0  0  0  0  0  0
    2.6499   -3.2911    1.2559 H   0  0  0  0  0  0  0  0  0  0  0  0
   -1.3962   -2.2006   -0.7803 H   0  0  0  0  0  0  0  0  0  0  0  0
   -1.3962   -1.1145    0.4826 H   0  0  0  0  0  0  0  0  0  0  0  0
    0.7704   -0.5961    2.5243 H   0  0  0  0  0  0  0  0  0  0  0  0
  1  2  1  0  0  0  0
  1  7  1  0  0  0  0
  1  8  1  0  0  0  0
  1  9  1  0  0  0  0
  2  3  1  0  0  0  0
  2  6  1  0  0  0  0
  2 10  1  6  0  0  0
  3  4  2  0  0  0  0
  3  5  1  0  0  0  0
  5 11  1  0  0  0  0
  6 12  1  0  0  0  0
  6 13  1  0  0  0  0
  7 14  1  0  0  0  0
M  END
$$$$
