Glutamic_acid
 OpenBabel10022014033D

 10  9  0  0  1  0  0  0  0  0999 V2000
    0.9626   -0.0889    0.0264 C   0  0  0  0  0  0  0  0  0  0  0  0
    0.4559    0.6951   -1.1732 C   0  0  0  0  0  0  0  0  0  0  0  0
   -1.0641    0.6951   -1.1732 C   0  0  0  0  0  0  0  0  0  0  0  0
   -1.6995    0.0930   -0.2518 O   0  0  0  0  0  0  0  0  0  0  0  0
   -1.7741    1.3679   -2.2026 O   0  0  0  0  0  0  0  0  0  0  0  0
    2.4826   -0.0889    0.0264 C   0  0  1  0  0  0  0  0  0  0  0  0
    2.9892   -0.8729    1.2261 C   0  0  0  0  0  0  0  0  0  0  0  0
    3.7199   -1.8982    1.0526 O   0  0  0  0  0  0  0  0  0  0  0  0
    2.6462   -0.4597    2.5406 O   0  0  0  0  0  0  0  0  0  0  0  0
    2.9726   -0.7145   -1.2102 N   0  0  0  0  0  0  0  0  0  0  0  0
  1  2  1  0  0  0  0
  1  6  1  0  0  0  0
  2  3  1  0  0  0  0
  3  4  2  0  0  0  0
  3  5  1  0  0  0  0
  6  7  1  0  0  0  0
  6 10  1  6  0  0  0
  7  8  2  0  0  0  0
  7  9  1  0  0  0  0
M  END
$$$$
