Glycine
 OpenBabel10022015533D

 10  9  0  0  0  0  0  0  0  0999 V2000
    0.9335    0.0477   -0.0575 C   0  0  0  0  0  0  0  0  0  0  0  0
    0.4268   -0.2492   -1.4594 C   0  0  0  0  0  0  0  0  0  0  0  0
   -0.3038   -1.2678   -1.6686 O   0  0  0  0  0  0  0  0  0  0  0  0
    0.7699    0.6115   -2.5355 O   0  0  0  0  0  0  0  0  0  0  0  0
    0.4435   -0.9829    0.8691 N   0  0  0  0  0  0  0  0  0  0  0  0
    0.5768    1.0069    0.2550 H   0  0  0  0  0  0  0  0  0  0  0  0
    2.0035    0.0477   -0.0575 H   0  0  0  0  0  0  0  0  0  0  0  0
    0.4365    0.4162   -3.4578 H   0  0  0  0  0  0  0  0  0  0  0  0
   -0.5765   -0.9829    0.8691 H   0  0  0  0  0  0  0  0  0  0  0  0
    0.7835   -1.8973    0.5713 H   0  0  0  0  0  0  0  0  0  0  0  0
  1  2  1  0  0  0  0
  1  5  1  0  0  0  0
  1  6  1  0  0  0  0
  1  7  1  0  0  0  0
  2  3  2  0  0  0  0
  2  4  1  0  0  0  0
  4  8  1  0  0  0  0
  5  9  1  0  0  0  0
  5 10  1  0  0  0  0
M  END
$$$$
