Histidine
 OpenBabel10022015533D

 20 20  0  0  1  0  0  0  0  0999 V2000
    3.8604    0.8967   -1.9401 O   0  0  0  0  0  0  0  0  0  0  0  0
    3.8620   -0.3670   -1.8050 C   0  0  0  0  0  0  0  0  0  0  0  0
    2.9882   -0.9984   -0.7335 C   0  0  2  0  0  0  0  0  0  0  0  0
    2.2282    0.0902    0.0068 C   0  0  0  0  0  0  0  0  0  0  0  0
    3.0898    1.2090    0.5691 C   0  0  0  0  0  0  0  0  0  0  0  0
    3.6964    2.2178   -0.1176 C   0  0  0  0  0  0  0  0  0  0  0  0
    4.4088    2.9463    0.8113 N   0  0  0  0  0  0  0  0  0  0  0  0
    4.2153    2.3237    2.0255 C   0  0  0  0  0  0  0  0  0  0  0  0
    3.4257    1.2865    1.9242 N   0  0  0  0  0  0  0  0  0  0  0  0
    3.8333   -1.7377    0.2153 N   0  0  0  0  0  0  0  0  0  0  0  0
    4.6351   -1.1738   -2.6814 O   0  0  0  0  0  0  0  0  0  0  0  0
    2.2929   -1.6709   -1.1908 H   0  0  0  0  0  0  0  0  0  0  0  0
    1.5318    0.4957   -0.6972 H   0  0  0  0  0  0  0  0  0  0  0  0
    1.6944   -0.3840    0.8038 H   0  0  0  0  0  0  0  0  0  0  0  0
    3.6324    2.4070   -1.1688 H   0  0  0  0  0  0  0  0  0  0  0  0
    4.9684    3.7807    0.6348 H   0  0  0  0  0  0  0  0  0  0  0  0
    4.6588    2.6505    2.9428 H   0  0  0  0  0  0  0  0  0  0  0  0
    4.3433   -2.4681   -0.2815 H   0  0  0  0  0  0  0  0  0  0  0  0
    4.4961   -1.0966    0.6512 H   0  0  0  0  0  0  0  0  0  0  0  0
    4.6364   -2.1681   -2.5751 H   0  0  0  0  0  0  0  0  0  0  0  0
  1  2  2  0  0  0  0
  2 11  1  0  0  0  0
  3 10  1  0  0  0  0
  3 12  1  6  0  0  0
  3  4  1  0  0  0  0
  3  2  1  0  0  0  0
  4  5  1  0  0  0  0
  4 13  1  0  0  0  0
  4 14  1  0  0  0  0
  5  6  2  0  0  0  0
  5  9  1  0  0  0  0
  6  7  1  0  0  0  0
  6 15  1  0  0  0  0
  7  8  1  0  0  0  0
  7 16  1  0  0  0  0
  8  9  2  0  0  0  0
  8 17  1  0  0  0  0
 10 18  1  0  0  0  0
 10 19  1  0  0  0  0
 11 20  1  0  0  0  0
M  END
$$$$
