Serine
 OpenBabel10022015533D

 14 13  0  0  1  0  0  0  0  0999 V2000
    1.0364   -0.0033   -0.0931 C   0  0  0  0  0  0  0  0  0  0  0  0
    0.5298   -0.8379   -1.2581 C   0  0  1  0  0  0  0  0  0  0  0  0
    1.0364   -2.2641   -1.1178 C   0  0  0  0  0  0  0  0  0  0  0  0
    0.2105   -3.2254   -1.0233 O   0  0  0  0  0  0  0  0  0  0  0  0
    2.4325   -2.5223   -1.0924 O   0  0  0  0  0  0  0  0  0  0  0  0
   -0.9402   -0.8379   -1.2581 N   0  0  0  0  0  0  0  0  0  0  0  0
    0.5631   -0.5561    1.1263 O   0  0  0  0  0  0  0  0  0  0  0  0
    0.6798    1.0006   -0.1918 H   0  0  0  0  0  0  0  0  0  0  0  0
    2.1064   -0.0033   -0.0931 H   0  0  0  0  0  0  0  0  0  0  0  0
    0.8864   -0.4214   -2.1769 H   0  0  0  0  0  0  0  0  0  0  0  0
    2.7658   -3.4606   -1.0002 H   0  0  0  0  0  0  0  0  0  0  0  0
   -1.2802   -1.3979   -2.0398 H   0  0  0  0  0  0  0  0  0  0  0  0
   -1.2802   -1.2349   -0.3822 H   0  0  0  0  0  0  0  0  0  0  0  0
    0.8964   -1.4943    1.2186 H   0  0  0  0  0  0  0  0  0  0  0  0
  1  2  1  0  0  0  0
  1  7  1  0  0  0  0
  1  8  1  0  0  0  0
  1  9  1  0  0  0  0
  2  3  1  0  0  0  0
  2  6  1  0  0  0  0
  2 10  1  6  0  0  0
  3  4  2  0  0  0  0
  3  5  1  0  0  0  0
  5 11  1  0  0  0  0
  6 12  1  0  0  0  0
  6 13  1  0  0  0  0
  7 14  1  0  0  0  0
M  END
$$$$
