Tryptophan
 OpenBabel10022014033D

 15 16  0  0  1  0  0  0  0  0999 V2000
    1.0980   -4.7325    3.0642 C   0  0  0  0  0  0  0  0  0  0  0  0
    1.3113   -6.1143    3.3371 N   0  0  0  0  0  0  0  0  0  0  0  0
    0.7479   -6.8301    2.2620 C   0  0  0  0  0  0  0  0  0  0  0  0
    0.7620   -8.1848    1.9593 C   0  0  0  0  0  0  0  0  0  0  0  0
    0.1872   -8.5681    0.7522 C   0  0  0  0  0  0  0  0  0  0  0  0
   -0.3907   -7.6478   -0.1017 C   0  0  0  0  0  0  0  0  0  0  0  0
   -0.4066   -6.3274    0.2020 C   0  0  0  0  0  0  0  0  0  0  0  0
    0.1797   -5.8967    1.3885 C   0  0  0  0  0  0  0  0  0  0  0  0
    0.4079   -4.5831    1.9223 C   0  0  0  0  0  0  0  0  0  0  0  0
   -0.0469   -3.2688    1.3089 C   0  0  0  0  0  0  0  0  0  0  0  0
   -0.8290   -3.5420    0.0344 C   0  0  2  0  0  0  0  0  0  0  0  0
   -1.9995   -2.6545   -0.0219 N   0  0  0  0  0  0  0  0  0  0  0  0
   -1.2903   -4.9902    0.0236 C   0  0  0  0  0  0  0  0  0  0  0  0
   -2.5307   -5.2617   -0.0284 O   0  0  0  0  0  0  0  0  0  0  0  0
   -0.3352   -6.0400    0.0717 O   0  0  0  0  0  0  0  0  0  0  0  0
  1  2  1  0  0  0  0
  1  9  2  0  0  0  0
  2  3  1  0  0  0  0
  3  4  1  0  0  0  0
  3  8  2  0  0  0  0
  4  5  2  0  0  0  0
  5  6  1  0  0  0  0
  6  7  2  0  0  0  0
  7  8  1  0  0  0  0
  8  9  1  0  0  0  0
  9 10  1  0  0  0  0
 11 13  1  0  0  0  0
 11 12  1  1  0  0  0
 11 10  1  0  0  0  0
 13 14  2  0  0  0  0
 13 15  1  0  0  0  0
M  END
$$$$
